.model 1N4740A D(
+ IS=1.1325e-13
+ N=1.6989
+ BV=10
+ IBV=22.075e-3
+ RS=1.9
+ CJO=175e-12
+ VJ=0.75
+ M=0.33
+ FC=0.5
+ TT=5.76e-9
+ EG=1.11
+ XTI=3
)
